Version 4
SHEET 1 2948 2132
WIRE 896 -528 784 -528
WIRE 1104 -528 896 -528
WIRE 1136 -528 1104 -528
WIRE 1424 -528 1136 -528
WIRE 1488 -528 1424 -528
WIRE 1600 -528 1488 -528
WIRE 1744 -528 1600 -528
WIRE 2080 -528 1744 -528
WIRE 2192 -528 2080 -528
WIRE 2192 -480 2192 -528
WIRE 1360 -448 992 -448
WIRE 1488 -448 1488 -528
WIRE 1536 -448 1488 -448
WIRE 1104 -432 1104 -528
WIRE 1536 -400 1536 -448
WIRE 1536 -400 1488 -400
WIRE 1136 -384 1136 -528
WIRE 1136 -384 1104 -384
WIRE 1360 -368 1360 -448
WIRE 1440 -368 1360 -368
WIRE 992 -352 992 -448
WIRE 1056 -352 992 -352
WIRE 1488 -256 1488 -352
WIRE 1488 -256 1376 -256
WIRE 1696 -256 1488 -256
WIRE 1696 -192 1696 -256
WIRE 1376 -176 1376 -256
WIRE 1600 -160 1600 -528
WIRE 1600 -160 1488 -160
WIRE 1744 -144 1744 -528
WIRE 1744 -144 1696 -144
WIRE 1424 -128 1424 -528
WIRE 1424 -128 1376 -128
WIRE 1104 -112 1104 -336
WIRE 1648 -112 1616 -112
WIRE 1328 -96 1248 -96
WIRE 1920 -96 1792 -96
WIRE 1616 -80 1616 -112
WIRE 1792 -80 1792 -96
WIRE 1792 -80 1616 -80
WIRE 1248 16 1248 -96
WIRE 1920 -48 1920 -96
WIRE 1376 32 1376 -80
WIRE 1440 32 1376 32
WIRE 1440 80 1440 32
WIRE 1696 80 1696 -96
WIRE 896 112 896 -528
WIRE 1488 128 1488 -160
WIRE 1488 128 1440 128
WIRE 2080 128 2080 -528
WIRE 2080 128 1696 128
WIRE 1392 160 1344 160
WIRE 1696 208 1696 176
WIRE 2096 208 1696 208
WIRE 896 224 896 192
WIRE 1248 224 896 224
WIRE 1344 224 1344 160
WIRE 1584 224 1344 224
WIRE 1648 224 1648 160
WIRE 1648 224 1584 224
WIRE 896 240 896 224
WIRE 1248 304 1248 224
WIRE 1584 304 1584 224
WIRE 1584 304 1248 304
WIRE 1696 336 1696 208
WIRE 1712 336 1696 336
WIRE 1440 368 1440 176
WIRE 1552 368 1440 368
WIRE 1712 368 1712 336
WIRE 2096 368 2096 208
WIRE 784 416 784 -528
WIRE 1712 416 1440 416
WIRE 1776 416 1712 416
WIRE 1392 448 1360 448
WIRE 1360 496 1360 448
WIRE 1616 496 1360 496
WIRE 1664 496 1664 448
WIRE 1664 496 1616 496
WIRE 784 544 784 496
WIRE 1616 544 1616 496
WIRE 1616 544 784 544
WIRE 1776 544 1776 416
WIRE 1440 608 1440 464
WIRE 1712 608 1712 464
WIRE 1520 656 1440 656
WIRE 1776 656 1712 656
WIRE 1520 704 1520 656
WIRE 1520 704 1440 704
WIRE 1776 704 1776 656
WIRE 1776 704 1712 704
WIRE 1392 736 1392 688
WIRE 1552 736 1552 368
WIRE 1552 736 1392 736
WIRE 1664 736 1664 688
WIRE 1664 736 1552 736
WIRE 1104 800 1104 -32
WIRE 1440 800 1440 704
WIRE 1440 800 1104 800
WIRE 1552 800 1440 800
WIRE 1712 800 1712 704
WIRE 1712 800 1552 800
WIRE 1552 880 1552 800
FLAG 2192 -400 0
FLAG 1552 880 0
FLAG 896 320 0
FLAG 784 624 0
FLAG 2096 432 0
FLAG 1776 544 0
FLAG 1248 176 0
SYMBOL pmos4 1440 -448 R0
SYMATTR InstName M10
SYMATTR Value CMOSP
SYMATTR Value2 l=1u w=1000u
SYMBOL voltage 2192 -496 R0
WINDOW 123 0 0 Left 0
WINDOW 39 0 0 Left 0
SYMATTR InstName VDD
SYMATTR Value 1.8
SYMBOL pmos4 1056 -432 R0
SYMATTR InstName M9
SYMATTR Value CMOSP
SYMATTR Value2 l=1u w=1000u
SYMBOL pmos4 1328 -176 R0
SYMATTR InstName M1
SYMATTR Value CMOSP
SYMATTR Value2 l=1u w=500u
SYMBOL pmos4 1648 -192 R0
SYMATTR InstName M2
SYMATTR Value CMOSP
SYMATTR Value2 l=1u w=500u
SYMBOL pmos4 1392 80 R0
SYMATTR InstName M3
SYMATTR Value CMOSP
SYMATTR Value2 l=1u w=500u
SYMBOL pmos4 1648 80 R0
SYMATTR InstName M4
SYMATTR Value CMOSP
SYMATTR Value2 l=1u w=500u
SYMBOL nmos4 1392 368 R0
SYMATTR InstName M5
SYMATTR Value CMOSN
SYMATTR Value2 l=1u w=1000u
SYMBOL nmos4 1664 368 R0
SYMATTR InstName M6
SYMATTR Value CMOSN
SYMATTR Value2 l=1u w=1000u
SYMBOL nmos4 1392 608 R0
SYMATTR InstName M7
SYMATTR Value CMOSN
SYMATTR Value2 l=1u w=1000u
SYMBOL nmos4 1664 608 R0
SYMATTR InstName M8
SYMATTR Value CMOSN
SYMATTR Value2 l=1u w=1000u
SYMBOL current 1104 -112 R0
WINDOW 123 0 0 Left 0
WINDOW 39 0 0 Left 0
SYMATTR InstName I0
SYMATTR Value 900µ
SYMBOL voltage 1248 0 R0
WINDOW 123 0 0 Left 0
WINDOW 39 0 0 Left 0
SYMATTR InstName Vin
SYMATTR Value 0.8
SYMBOL res 880 96 R0
SYMATTR InstName R1
SYMATTR Value 26k
SYMBOL res 880 224 R0
SYMATTR InstName R2
SYMATTR Value 10k
SYMBOL res 768 400 R0
SYMATTR InstName R3
SYMATTR Value 10k
SYMBOL res 768 528 R0
SYMATTR InstName R4
SYMATTR Value 10K
SYMBOL cap 2080 368 R0
SYMATTR InstName C1
SYMATTR Value 20p
SYMBOL voltage 1248 80 R0
WINDOW 123 24 124 Left 2
WINDOW 39 0 0 Left 0
SYMATTR InstName V1
SYMATTR Value SINE(0 150m 1Meg 0 0 0)
SYMATTR Value2 AC 1
TEXT 2248 -248 Left 2 !.lib C:\\Users\\Chandan\\Documents\\tsmc 180nm.txt
TEXT 1016 -320 Left 2 !L=180n W=200u
TEXT 1360 -336 Left 2 !L=180n W=200u
TEXT 1256 -192 Left 2 !L=180n W=300u
TEXT 1616 -192 Left 2 !L=180n W=300u
TEXT 1320 64 Left 2 !L=180n W=300u
TEXT 1608 64 Left 2 !L=180n W=300u
TEXT 1360 352 Left 2 !L=180n W=100u
TEXT 1608 352 Left 2 !L=180n W=100u
TEXT 1384 608 Left 2 !L=180n W=45u
TEXT 1608 608 Left 2 !L=180n W=45u
TEXT 2264 -152 Left 2 !.ac dec 10 100 100Meg
